/*--------------------------------*- C++ -*----------------------------------*\
| =========                 |                                                 |
| \\      /  F ield         | OpenFOAM: The Open Source CFD Toolbox           |
|  \\    /   O peration     | Version:  v2412                                 |
|   \\  /    A nd           | Website:  www.openfoam.com                      |
|    \\/     M anipulation  |                                                 |
\*---------------------------------------------------------------------------*/
FoamFile
{
    version     2.0;
    format      ascii;
    class       volScalarField;
    object      p;
}
// * * * * * * * * * * * * * * * * * * * * * * * * * * * * * * * * * * * * * //

/*
Inflow pressure:
9.80e+4 = 98000 Pa
*/
p 98000;

dimensions      [1 -1 -2 0 0 0 0];

internalField   uniform $p;

boundaryField
{
    inlet
    {
        type            fixedValue;
        value           uniform $p;
    }

    sym
    {
        type            slip;
    }

    wedge
    {
        type            slip;
    }

    top
    {
        type            slip;
    }

    back
    {
        type            empty;
    }

    front
    {
        type            empty;
    }

    outlet
    {
        type            zeroGradient;
    }
}


// ************************************************************************* //
