/*--------------------------------*- C++ -*----------------------------------*\
| =========                 |                                                 |
| \\      /  F ield         | OpenFOAM: The Open Source CFD Toolbox           |
|  \\    /   O peration     | Version:  v2412                                 |
|   \\  /    A nd           | Website:  www.openfoam.com                      |
|    \\/     M anipulation  |                                                 |
\*---------------------------------------------------------------------------*/
FoamFile
{
    version     2.0;
    format      ascii;
    class       volVectorField;
    object      U;
}
// * * * * * * * * * * * * * * * * * * * * * * * * * * * * * * * * * * * * * //

/* 
Mach number = 2
M = u / c
c: speed of sound
c = 346.13 m/s for air at 25°C
u = 2 * 346.13 = 692.26 m/s
*/ 

// u   692.26;
u   1200;

dimensions      [0 1 -1 0 0 0 0];

internalField   uniform ($u 0 0);

boundaryField
{
    inlet
    {
        type            fixedValue;
        value           uniform ($u 0 0);
    }

    sym
    {
        type            slip;
    }

    wedge
    {
        type            slip;
    }

    top
    {
        type            slip;
    }

    back
    {
        type            empty;
    }

    front
    {
        type            empty;
    }

    outlet
    {
        type            inletOutlet;
        inletValue      uniform ($u 0 0);
        value           uniform ($u 0 0);
    }
}


// ************************************************************************* //
