/*--------------------------------*- C++ -*----------------------------------*\
| =========                 |                                                 |
| \\      /  F ield         | OpenFOAM: The Open Source CFD Toolbox           |
|  \\    /   O peration     | Version:  2412                                  |
|   \\  /    A nd           | Website:  www.openfoam.com                      |
|    \\/     M anipulation  |                                                 |
\*---------------------------------------------------------------------------*/
FoamFile
{
    version     2.0;
    format      ascii;
    arch        "LSB;label=32;scalar=64";
    class       polyBoundaryMesh;
    location    "constant/polyMesh";
    object      boundary;
}
// * * * * * * * * * * * * * * * * * * * * * * * * * * * * * * * * * * * * * //

7
(
    inlet
    {
        type            patch;
        nFaces          130;
        startFace       20590;
    }
    sym
    {
        type            symmetry;
        inGroups        1(symmetry);
        nFaces          27;
        startFace       20720;
    }
    wedge
    {
        type            patch;
        nFaces          53;
        startFace       20747;
    }
    top
    {
        type            patch;
        nFaces          80;
        startFace       20800;
    }
    back
    {
        type            empty;
        inGroups        1(empty);
        nFaces          10400;
        startFace       20880;
    }
    front
    {
        type            empty;
        inGroups        1(empty);
        nFaces          10400;
        startFace       31280;
    }
    outlet
    {
        type            patch;
        nFaces          130;
        startFace       41680;
    }
)

// ************************************************************************* //
