/*--------------------------------*- C++ -*----------------------------------*\
| =========                 |                                                 |
| \\      /  F ield         | OpenFOAM: The Open Source CFD Toolbox           |
|  \\    /   O peration     | Version:  v2412                                   |
|   \\  /    A nd           | Website:  www.openfoam.com                       |
|    \\/     M anipulation  |                                                 |
\*---------------------------------------------------------------------------*/
FoamFile
{
    version     2.0;
    format      ascii;
    class       dictionary;
    object      fvSolution;
}

solvers
{
    p
    {
        solver           GAMG;
        tolerance        1e-6;
        relTol           0.01;
        smoother         GaussSeidel;
        nPreSweeps       0;
        nPostSweeps      2;
        nFinestSweeps    2;
        cacheAgglomeration true;
        nCellsInCoarsestLevel 20;
        agglomerator     faceAreaPair;
        mergeLevels      1;
    }
    U
    {
        solver          smoothSolver;
        smoother        symGaussSeidel;
        tolerance       1e-6;
        relTol          0.01;
    }
    e 
    {
        solver          smoothSolver;
        smoother        symGaussSeidel;
        tolerance       1e-6;
        relTol          0.01;
    }
}

SIMPLE
{
    nNonOrthogonalCorrectors 0;
    residualControl
    {
        p               1e-4;
        U               1e-5;
        h               1e-5;
    }
}
