/*--------------------------------*- C++ -*----------------------------------*\
| =========                 |                                                 |
| \\      /  F ield         | OpenFOAM: The Open Source CFD Toolbox           |
|  \\    /   O peration     | Version:  2412                                  |
|   \\  /    A nd           | Website:  www.openfoam.com                      |
|    \\/     M anipulation  |                                                 |
\*---------------------------------------------------------------------------*/
FoamFile
{
    version     2.0;
    format      ascii;
    arch        "LSB;label=32;scalar=64";
    class       polyBoundaryMesh;
    location    "constant/polyMesh";
    object      boundary;
}
// * * * * * * * * * * * * * * * * * * * * * * * * * * * * * * * * * * * * * //

7
(
    inlet
    {
        type            patch;
        nFaces          100;
        startFace       29750;
    }
    sym
    {
        type            symmetry;
        inGroups        1(symmetry);
        nFaces          50;
        startFace       29850;
    }
    wedge
    {
        type            patch;
        nFaces          100;
        startFace       29900;
    }
    top
    {
        type            patch;
        nFaces          150;
        startFace       30000;
    }
    back
    {
        type            empty;
        inGroups        1(empty);
        nFaces          15000;
        startFace       30150;
    }
    front
    {
        type            empty;
        inGroups        1(empty);
        nFaces          15000;
        startFace       45150;
    }
    outlet
    {
        type            patch;
        nFaces          100;
        startFace       60150;
    }
)

// ************************************************************************* //
