/*--------------------------------*- C++ -*----------------------------------*\
| =========                 |                                                 |
| \\      /  F ield         | OpenFOAM: The Open Source CFD Toolbox           |
|  \\    /   O peration     | Version:  2412                                  |
|   \\  /    A nd           | Website:  www.openfoam.com                      |
|    \\/     M anipulation  |                                                 |
\*---------------------------------------------------------------------------*/
FoamFile
{
    version     2.0;
    format      ascii;
    arch        "LSB;label=32;scalar=64";
    class       polyBoundaryMesh;
    location    "constant/polyMesh";
    object      boundary;
}
// * * * * * * * * * * * * * * * * * * * * * * * * * * * * * * * * * * * * * //

7
(
    inlet
    {
        type            patch;
        nFaces          300;
        startFace       359100;
    }
    sym
    {
        type            patch;
        nFaces          300;
        startFace       359400;
    }
    wedge
    {
        type            patch;
        nFaces          300;
        startFace       359700;
    }
    top
    {
        type            patch;
        nFaces          600;
        startFace       360000;
    }
    back
    {
        type            empty;
        inGroups        1(empty);
        nFaces          180000;
        startFace       360600;
    }
    front
    {
        type            empty;
        inGroups        1(empty);
        nFaces          180000;
        startFace       540600;
    }
    outlet
    {
        type            patch;
        nFaces          300;
        startFace       720600;
    }
)

// ************************************************************************* //
